WARNING: physical memory size is smaller than virtual memory size

*** ChampSim Multicore Out-of-Order Simulator ***

Warmup Instructions: 10000000
Simulation Instructions: 50000000
Number of CPUs: 1
Page size: 4096

CPU 0 Oracle branch predictor
Basic BTB sets: 1024 ways: 8 indirect buffer size: 4096 RAS size: 64
Off-chip DRAM Size: 4 GiB Channels: 1 Width: 64-bit Data Rate: 3200 MT/s
Heartbeat CPU 0 instructions: 10000000 cycles: 2500120 heartbeat IPC: 3.99981 cumulative IPC: 3.99981 (Simulation time: 0 hr 2 min 30 sec) 
Warmup finished CPU 0 instructions: 10000000 cycles: 2500121 cumulative IPC: 3.99981 (Simulation time: 0 hr 2 min 30 sec) 

Warmup complete CPU 0 instructions: 10000000 cycles: 2500121 (Simulation time: 0 hr 2 min 30 sec) 

Heartbeat CPU 0 instructions: 20000000 cycles: 6801478 heartbeat IPC: 2.32485 cumulative IPC: 2.32485 (Simulation time: 0 hr 6 min 11 sec) 
Heartbeat CPU 0 instructions: 30000001 cycles: 11114557 heartbeat IPC: 2.31853 cumulative IPC: 2.32169 (Simulation time: 0 hr 9 min 56 sec) 
Heartbeat CPU 0 instructions: 40000003 cycles: 15423056 heartbeat IPC: 2.321 cumulative IPC: 2.32146 (Simulation time: 0 hr 13 min 32 sec) 
Heartbeat CPU 0 instructions: 50000002 cycles: 19727045 heartbeat IPC: 2.32343 cumulative IPC: 2.32195 (Simulation time: 0 hr 16 min 45 sec) 
Heartbeat CPU 0 instructions: 60000001 cycles: 24031595 heartbeat IPC: 2.32313 cumulative IPC: 2.32219 (Simulation time: 0 hr 19 min 46 sec) 
Simulation finished CPU 0 instructions: 50000001 cycles: 21531475 cumulative IPC: 2.32219 (Simulation time: 0 hr 19 min 46 sec) 

Simulation complete CPU 0 instructions: 50000001 cycles: 21531475 (Simulation time: 0 hr 19 min 46 sec) 


ChampSim completed all CPUs

=== Simulation ===
CPU 0 runs /home/kostr2010/cod/microarch-course/traces/621.wrf_s-575B.champsimtrace.xz

Region of Interest Statistics

CPU 0 cumulative IPC: 2.32219 instructions: 50000001 cycles: 21531475
CPU 0 Branch Prediction Accuracy: 97.0283% MPKI: 3.96026 Average ROB Occupancy at Mispredict: 113.789
Branch type MPKI
BRANCH_DIRECT_JUMP: 0
BRANCH_INDIRECT: 0
BRANCH_CONDITIONAL: 3.94564
BRANCH_DIRECT_CALL: 0
BRANCH_INDIRECT_CALL: 0
BRANCH_RETURN: 0.01462

LLC TOTAL       ACCESS:       1239  HIT:          0  MISS:       1239
LLC LOAD         ACCESS:        457  HIT:          0  MISS:        457
LLC RFO          ACCESS:        746  HIT:          0  MISS:        746
LLC PREFETCH     ACCESS:          0  HIT:          0  MISS:          0
LLC WRITE        ACCESS:          0  HIT:          0  MISS:          0
LLC TRANSLATION  ACCESS:         36  HIT:          0  MISS:         36
LLC PREFETCH  REQUESTED:          0  ISSUED:          0  USEFUL:          0  USELESS:          0
LLC AVERAGE MISS LATENCY: 164.983 cycles
cpu0_DTLB TOTAL       ACCESS:    8589749  HIT:    8587027  MISS:       2722
cpu0_DTLB LOAD         ACCESS:    8589749  HIT:    8587027  MISS:       2722
cpu0_DTLB RFO          ACCESS:          0  HIT:          0  MISS:          0
cpu0_DTLB PREFETCH     ACCESS:          0  HIT:          0  MISS:          0
cpu0_DTLB WRITE        ACCESS:          0  HIT:          0  MISS:          0
cpu0_DTLB TRANSLATION  ACCESS:          0  HIT:          0  MISS:          0
cpu0_DTLB PREFETCH  REQUESTED:          0  ISSUED:          0  USEFUL:          0  USELESS:          0
cpu0_DTLB AVERAGE MISS LATENCY: 11.6463 cycles
cpu0_ITLB TOTAL       ACCESS:     240065  HIT:     240065  MISS:          0
cpu0_ITLB LOAD         ACCESS:     240065  HIT:     240065  MISS:          0
cpu0_ITLB RFO          ACCESS:          0  HIT:          0  MISS:          0
cpu0_ITLB PREFETCH     ACCESS:          0  HIT:          0  MISS:          0
cpu0_ITLB WRITE        ACCESS:          0  HIT:          0  MISS:          0
cpu0_ITLB TRANSLATION  ACCESS:          0  HIT:          0  MISS:          0
cpu0_ITLB PREFETCH  REQUESTED:          0  ISSUED:          0  USEFUL:          0  USELESS:          0
cpu0_ITLB AVERAGE MISS LATENCY: -nan cycles
cpu0_L1D TOTAL       ACCESS:    9397561  HIT:    9393893  MISS:       3668
cpu0_L1D LOAD         ACCESS:    7462114  HIT:    7460664  MISS:       1450
cpu0_L1D RFO          ACCESS:          0  HIT:          0  MISS:          0
cpu0_L1D PREFETCH     ACCESS:          0  HIT:          0  MISS:          0
cpu0_L1D WRITE        ACCESS:    1935399  HIT:    1933223  MISS:       2176
cpu0_L1D TRANSLATION  ACCESS:         48  HIT:          6  MISS:         42
cpu0_L1D PREFETCH  REQUESTED:          0  ISSUED:          0  USEFUL:          0  USELESS:          0
cpu0_L1D AVERAGE MISS LATENCY: 66.6713 cycles
cpu0_L1I TOTAL       ACCESS:     281016  HIT:     280456  MISS:        560
cpu0_L1I LOAD         ACCESS:     281016  HIT:     280456  MISS:        560
cpu0_L1I RFO          ACCESS:          0  HIT:          0  MISS:          0
cpu0_L1I PREFETCH     ACCESS:          0  HIT:          0  MISS:          0
cpu0_L1I WRITE        ACCESS:          0  HIT:          0  MISS:          0
cpu0_L1I TRANSLATION  ACCESS:          0  HIT:          0  MISS:          0
cpu0_L1I PREFETCH  REQUESTED:          0  ISSUED:          0  USEFUL:          0  USELESS:          0
cpu0_L1I AVERAGE MISS LATENCY: 6.01608 cycles
cpu0_L2C TOTAL       ACCESS:       2141  HIT:        902  MISS:       1239
cpu0_L2C LOAD         ACCESS:        812  HIT:        355  MISS:        457
cpu0_L2C RFO          ACCESS:        766  HIT:         20  MISS:        746
cpu0_L2C PREFETCH     ACCESS:          0  HIT:          0  MISS:          0
cpu0_L2C WRITE        ACCESS:        521  HIT:        521  MISS:          0
cpu0_L2C TRANSLATION  ACCESS:         42  HIT:          6  MISS:         36
cpu0_L2C PREFETCH  REQUESTED:          0  ISSUED:          0  USEFUL:          0  USELESS:          0
cpu0_L2C AVERAGE MISS LATENCY: 185.983 cycles
cpu0_STLB TOTAL       ACCESS:       1755  HIT:       1707  MISS:         48
cpu0_STLB LOAD         ACCESS:       1755  HIT:       1707  MISS:         48
cpu0_STLB RFO          ACCESS:          0  HIT:          0  MISS:          0
cpu0_STLB PREFETCH     ACCESS:          0  HIT:          0  MISS:          0
cpu0_STLB WRITE        ACCESS:          0  HIT:          0  MISS:          0
cpu0_STLB TRANSLATION  ACCESS:          0  HIT:          0  MISS:          0
cpu0_STLB PREFETCH  REQUESTED:          0  ISSUED:          0  USEFUL:          0  USELESS:          0
cpu0_STLB AVERAGE MISS LATENCY: 366.688 cycles

DRAM Statistics
Channel 0
 RQ ROW_BUFFER_HIT:        464
  ROW_BUFFER_MISS:        775
 AVG DBUS CONGESTED CYCLE:    3.84587
 WQ ROW_BUFFER_HIT:          0
  ROW_BUFFER_MISS:          0  FULL:          0

