WARNING: physical memory size is smaller than virtual memory size

*** ChampSim Multicore Out-of-Order Simulator ***

Warmup Instructions: 10000000
Simulation Instructions: 50000000
Number of CPUs: 1
Page size: 4096

CPU 0 Oracle branch predictor
Basic BTB sets: 1024 ways: 8 indirect buffer size: 4096 RAS size: 64
Off-chip DRAM Size: 4 GiB Channels: 1 Width: 64-bit Data Rate: 3200 MT/s
Heartbeat CPU 0 instructions: 10000003 cycles: 2500044 heartbeat IPC: 3.99994 cumulative IPC: 3.99994 (Simulation time: 0 hr 2 min 45 sec) 
Warmup finished CPU 0 instructions: 10000003 cycles: 2500045 cumulative IPC: 3.99993 (Simulation time: 0 hr 2 min 45 sec) 

Warmup complete CPU 0 instructions: 10000003 cycles: 2500045 (Simulation time: 0 hr 2 min 45 sec) 

Heartbeat CPU 0 instructions: 20000002 cycles: 6663163 heartbeat IPC: 2.40205 cumulative IPC: 2.40205 (Simulation time: 0 hr 7 min 28 sec) 
Heartbeat CPU 0 instructions: 30000001 cycles: 10984799 heartbeat IPC: 2.31394 cumulative IPC: 2.35717 (Simulation time: 0 hr 11 min 47 sec) 
Heartbeat CPU 0 instructions: 40000002 cycles: 15298547 heartbeat IPC: 2.31817 cumulative IPC: 2.34403 (Simulation time: 0 hr 16 min 16 sec) 
Heartbeat CPU 0 instructions: 50000000 cycles: 19948957 heartbeat IPC: 2.15035 cumulative IPC: 2.29241 (Simulation time: 0 hr 20 min 13 sec) 
Heartbeat CPU 0 instructions: 60000003 cycles: 24130305 heartbeat IPC: 2.39158 cumulative IPC: 2.31158 (Simulation time: 0 hr 22 min 36 sec) 
Simulation finished CPU 0 instructions: 50000000 cycles: 21630261 cumulative IPC: 2.31158 (Simulation time: 0 hr 22 min 36 sec) 

Simulation complete CPU 0 instructions: 50000000 cycles: 21630261 (Simulation time: 0 hr 22 min 36 sec) 


ChampSim completed all CPUs

=== Simulation ===
CPU 0 runs /home/kostr2010/cod/microarch-course/traces/623.xalancbmk_s-165B.champsimtrace.xz

Region of Interest Statistics

CPU 0 cumulative IPC: 2.31158 instructions: 50000000 cycles: 21630261
CPU 0 Branch Prediction Accuracy: 99.9997% MPKI: 0.00108001 Average ROB Occupancy at Mispredict: 309.926
Branch type MPKI
BRANCH_DIRECT_JUMP: 0
BRANCH_INDIRECT: 0
BRANCH_CONDITIONAL: 0.00108001
BRANCH_DIRECT_CALL: 0
BRANCH_INDIRECT_CALL: 0
BRANCH_RETURN: 0

LLC TOTAL       ACCESS:     951435  HIT:     290058  MISS:     661377
LLC LOAD         ACCESS:     950693  HIT:     289656  MISS:     661037
LLC RFO          ACCESS:        280  HIT:          0  MISS:        280
LLC PREFETCH     ACCESS:          0  HIT:          0  MISS:          0
LLC WRITE        ACCESS:        402  HIT:        402  MISS:          0
LLC TRANSLATION  ACCESS:         60  HIT:          0  MISS:         60
LLC PREFETCH  REQUESTED:          0  ISSUED:          0  USEFUL:          0  USELESS:          0
LLC AVERAGE MISS LATENCY: 101.025 cycles
cpu0_DTLB TOTAL       ACCESS:   12491511  HIT:   12422025  MISS:      69486
cpu0_DTLB LOAD         ACCESS:   12491511  HIT:   12422025  MISS:      69486
cpu0_DTLB RFO          ACCESS:          0  HIT:          0  MISS:          0
cpu0_DTLB PREFETCH     ACCESS:          0  HIT:          0  MISS:          0
cpu0_DTLB WRITE        ACCESS:          0  HIT:          0  MISS:          0
cpu0_DTLB TRANSLATION  ACCESS:          0  HIT:          0  MISS:          0
cpu0_DTLB PREFETCH  REQUESTED:          0  ISSUED:          0  USEFUL:          0  USELESS:          0
cpu0_DTLB AVERAGE MISS LATENCY: 2.61519 cycles
cpu0_ITLB TOTAL       ACCESS:          0  HIT:          0  MISS:          0
cpu0_ITLB LOAD         ACCESS:          0  HIT:          0  MISS:          0
cpu0_ITLB RFO          ACCESS:          0  HIT:          0  MISS:          0
cpu0_ITLB PREFETCH     ACCESS:          0  HIT:          0  MISS:          0
cpu0_ITLB WRITE        ACCESS:          0  HIT:          0  MISS:          0
cpu0_ITLB TRANSLATION  ACCESS:          0  HIT:          0  MISS:          0
cpu0_ITLB PREFETCH  REQUESTED:          0  ISSUED:          0  USEFUL:          0  USELESS:          0
cpu0_ITLB AVERAGE MISS LATENCY: -nan cycles
cpu0_L1D TOTAL       ACCESS:   13104204  HIT:    8769848  MISS:    4334356
cpu0_L1D LOAD         ACCESS:   12447803  HIT:    8116894  MISS:    4330909
cpu0_L1D RFO          ACCESS:          0  HIT:          0  MISS:          0
cpu0_L1D PREFETCH     ACCESS:          0  HIT:          0  MISS:          0
cpu0_L1D WRITE        ACCESS:     656322  HIT:     652954  MISS:       3368
cpu0_L1D TRANSLATION  ACCESS:         79  HIT:          0  MISS:         79
cpu0_L1D PREFETCH  REQUESTED:          0  ISSUED:          0  USEFUL:          0  USELESS:          0
cpu0_L1D AVERAGE MISS LATENCY: 22.3854 cycles
cpu0_L1I TOTAL       ACCESS:          0  HIT:          0  MISS:          0
cpu0_L1I LOAD         ACCESS:          0  HIT:          0  MISS:          0
cpu0_L1I RFO          ACCESS:          0  HIT:          0  MISS:          0
cpu0_L1I PREFETCH     ACCESS:          0  HIT:          0  MISS:          0
cpu0_L1I WRITE        ACCESS:          0  HIT:          0  MISS:          0
cpu0_L1I TRANSLATION  ACCESS:          0  HIT:          0  MISS:          0
cpu0_L1I PREFETCH  REQUESTED:          0  ISSUED:          0  USEFUL:          0  USELESS:          0
cpu0_L1I AVERAGE MISS LATENCY: -nan cycles
cpu0_L2C TOTAL       ACCESS:     954345  HIT:       3313  MISS:     951032
cpu0_L2C LOAD         ACCESS:     950910  HIT:        218  MISS:     950692
cpu0_L2C RFO          ACCESS:       1616  HIT:       1336  MISS:        280
cpu0_L2C PREFETCH     ACCESS:          0  HIT:          0  MISS:          0
cpu0_L2C WRITE        ACCESS:       1759  HIT:       1759  MISS:          0
cpu0_L2C TRANSLATION  ACCESS:         60  HIT:          0  MISS:         60
cpu0_L2C PREFETCH  REQUESTED:          0  ISSUED:          0  USEFUL:          0  USELESS:          0
cpu0_L2C AVERAGE MISS LATENCY: 90.9672 cycles
cpu0_STLB TOTAL       ACCESS:      17592  HIT:      17532  MISS:         60
cpu0_STLB LOAD         ACCESS:      17592  HIT:      17532  MISS:         60
cpu0_STLB RFO          ACCESS:          0  HIT:          0  MISS:          0
cpu0_STLB PREFETCH     ACCESS:          0  HIT:          0  MISS:          0
cpu0_STLB WRITE        ACCESS:          0  HIT:          0  MISS:          0
cpu0_STLB TRANSLATION  ACCESS:          0  HIT:          0  MISS:          0
cpu0_STLB PREFETCH  REQUESTED:          0  ISSUED:          0  USEFUL:          0  USELESS:          0
cpu0_STLB AVERAGE MISS LATENCY: 681.267 cycles

DRAM Statistics
Channel 0
 RQ ROW_BUFFER_HIT:     548551
  ROW_BUFFER_MISS:     112621
 AVG DBUS CONGESTED CYCLE:    3.83407
 WQ ROW_BUFFER_HIT:        311
  ROW_BUFFER_MISS:         48  FULL:          0

