WARNING: physical memory size is smaller than virtual memory size

*** ChampSim Multicore Out-of-Order Simulator ***

Warmup Instructions: 10000000
Simulation Instructions: 50000000
Number of CPUs: 1
Page size: 4096

CPU 0 Bimodal branch predictor
Basic BTB sets: 1024 ways: 8 indirect buffer size: 4096 RAS size: 64
Off-chip DRAM Size: 4 GiB Channels: 1 Width: 64-bit Data Rate: 3200 MT/s
Heartbeat CPU 0 instructions: 10000001 cycles: 2500152 heartbeat IPC: 3.99976 cumulative IPC: 3.99976 (Simulation time: 0 hr 1 min 54 sec) 
Warmup finished CPU 0 instructions: 10000001 cycles: 2500153 cumulative IPC: 3.99976 (Simulation time: 0 hr 1 min 54 sec) 

Warmup complete CPU 0 instructions: 10000001 cycles: 2500153 (Simulation time: 0 hr 1 min 54 sec) 

Heartbeat CPU 0 instructions: 20000001 cycles: 8385980 heartbeat IPC: 1.699 cumulative IPC: 1.699 (Simulation time: 0 hr 4 min 59 sec) 
Heartbeat CPU 0 instructions: 30000001 cycles: 14383094 heartbeat IPC: 1.66747 cumulative IPC: 1.68309 (Simulation time: 0 hr 8 min 8 sec) 
Heartbeat CPU 0 instructions: 40000003 cycles: 20290881 heartbeat IPC: 1.69269 cumulative IPC: 1.68628 (Simulation time: 0 hr 11 min 12 sec) 
Heartbeat CPU 0 instructions: 50000001 cycles: 26237134 heartbeat IPC: 1.68174 cumulative IPC: 1.68514 (Simulation time: 0 hr 14 min 18 sec) 
Heartbeat CPU 0 instructions: 60000000 cycles: 32236907 heartbeat IPC: 1.66673 cumulative IPC: 1.68143 (Simulation time: 0 hr 16 min 43 sec) 
Simulation finished CPU 0 instructions: 50000004 cycles: 29736756 cumulative IPC: 1.68143 (Simulation time: 0 hr 16 min 43 sec) 

Simulation complete CPU 0 instructions: 50000004 cycles: 29736756 (Simulation time: 0 hr 16 min 43 sec) 


ChampSim completed all CPUs

=== Simulation ===
CPU 0 runs /home/kostr2010/cod/microarch-course/traces/644.nab_s-12459B.champsimtrace.xz

Region of Interest Statistics

CPU 0 cumulative IPC: 1.68143 instructions: 50000004 cycles: 29736756
CPU 0 Branch Prediction Accuracy: 90.3272% MPKI: 13.827 Average ROB Occupancy at Mispredict: 31.174
Branch type MPKI
BRANCH_DIRECT_JUMP: 0.27594
BRANCH_INDIRECT: 0
BRANCH_CONDITIONAL: 13.5511
BRANCH_DIRECT_CALL: 0
BRANCH_INDIRECT_CALL: 0
BRANCH_RETURN: 0

LLC TOTAL       ACCESS:      34613  HIT:      25369  MISS:       9244
LLC LOAD         ACCESS:      20174  HIT:      18538  MISS:       1636
LLC RFO          ACCESS:       7607  HIT:         33  MISS:       7574
LLC PREFETCH     ACCESS:          0  HIT:          0  MISS:          0
LLC WRITE        ACCESS:       6710  HIT:       6710  MISS:          0
LLC TRANSLATION  ACCESS:        122  HIT:         88  MISS:         34
LLC PREFETCH  REQUESTED:          0  ISSUED:          0  USEFUL:          0  USELESS:          0
LLC AVERAGE MISS LATENCY: 90.9106 cycles
cpu0_DTLB TOTAL       ACCESS:   11834048  HIT:   11809555  MISS:      24493
cpu0_DTLB LOAD         ACCESS:   11834048  HIT:   11809555  MISS:      24493
cpu0_DTLB RFO          ACCESS:          0  HIT:          0  MISS:          0
cpu0_DTLB PREFETCH     ACCESS:          0  HIT:          0  MISS:          0
cpu0_DTLB WRITE        ACCESS:          0  HIT:          0  MISS:          0
cpu0_DTLB TRANSLATION  ACCESS:          0  HIT:          0  MISS:          0
cpu0_DTLB PREFETCH  REQUESTED:          0  ISSUED:          0  USEFUL:          0  USELESS:          0
cpu0_DTLB AVERAGE MISS LATENCY: 5.17348 cycles
cpu0_ITLB TOTAL       ACCESS:          0  HIT:          0  MISS:          0
cpu0_ITLB LOAD         ACCESS:          0  HIT:          0  MISS:          0
cpu0_ITLB RFO          ACCESS:          0  HIT:          0  MISS:          0
cpu0_ITLB PREFETCH     ACCESS:          0  HIT:          0  MISS:          0
cpu0_ITLB WRITE        ACCESS:          0  HIT:          0  MISS:          0
cpu0_ITLB TRANSLATION  ACCESS:          0  HIT:          0  MISS:          0
cpu0_ITLB PREFETCH  REQUESTED:          0  ISSUED:          0  USEFUL:          0  USELESS:          0
cpu0_ITLB AVERAGE MISS LATENCY: -nan cycles
cpu0_L1D TOTAL       ACCESS:   14562812  HIT:   14034681  MISS:     528131
cpu0_L1D LOAD         ACCESS:    9556141  HIT:    9163355  MISS:     392786
cpu0_L1D RFO          ACCESS:          0  HIT:          0  MISS:          0
cpu0_L1D PREFETCH     ACCESS:          0  HIT:          0  MISS:          0
cpu0_L1D WRITE        ACCESS:    5006531  HIT:    4871315  MISS:     135216
cpu0_L1D TRANSLATION  ACCESS:        140  HIT:         11  MISS:        129
cpu0_L1D PREFETCH  REQUESTED:          0  ISSUED:          0  USEFUL:          0  USELESS:          0
cpu0_L1D AVERAGE MISS LATENCY: 8.55341 cycles
cpu0_L1I TOTAL       ACCESS:          0  HIT:          0  MISS:          0
cpu0_L1I LOAD         ACCESS:          0  HIT:          0  MISS:          0
cpu0_L1I RFO          ACCESS:          0  HIT:          0  MISS:          0
cpu0_L1I PREFETCH     ACCESS:          0  HIT:          0  MISS:          0
cpu0_L1I WRITE        ACCESS:          0  HIT:          0  MISS:          0
cpu0_L1I TRANSLATION  ACCESS:          0  HIT:          0  MISS:          0
cpu0_L1I PREFETCH  REQUESTED:          0  ISSUED:          0  USEFUL:          0  USELESS:          0
cpu0_L1I AVERAGE MISS LATENCY: -nan cycles
cpu0_L2C TOTAL       ACCESS:     323172  HIT:     295265  MISS:      27907
cpu0_L2C LOAD         ACCESS:     291390  HIT:     271216  MISS:      20174
cpu0_L2C RFO          ACCESS:      16282  HIT:       8675  MISS:       7607
cpu0_L2C PREFETCH     ACCESS:          0  HIT:          0  MISS:          0
cpu0_L2C WRITE        ACCESS:      15371  HIT:      15367  MISS:          4
cpu0_L2C TRANSLATION  ACCESS:        129  HIT:          7  MISS:        122
cpu0_L2C PREFETCH  REQUESTED:          0  ISSUED:          0  USEFUL:          0  USELESS:          0
cpu0_L2C AVERAGE MISS LATENCY: 50.4445 cycles
cpu0_STLB TOTAL       ACCESS:      11020  HIT:      10880  MISS:        140
cpu0_STLB LOAD         ACCESS:      11020  HIT:      10880  MISS:        140
cpu0_STLB RFO          ACCESS:          0  HIT:          0  MISS:          0
cpu0_STLB PREFETCH     ACCESS:          0  HIT:          0  MISS:          0
cpu0_STLB WRITE        ACCESS:          0  HIT:          0  MISS:          0
cpu0_STLB TRANSLATION  ACCESS:          0  HIT:          0  MISS:          0
cpu0_STLB PREFETCH  REQUESTED:          0  ISSUED:          0  USEFUL:          0  USELESS:          0
cpu0_STLB AVERAGE MISS LATENCY: 274.386 cycles

DRAM Statistics
Channel 0
 RQ ROW_BUFFER_HIT:       7769
  ROW_BUFFER_MISS:       1475
 AVG DBUS CONGESTED CYCLE:    3.85263
 WQ ROW_BUFFER_HIT:          0
  ROW_BUFFER_MISS:          0  FULL:          0

