WARNING: physical memory size is smaller than virtual memory size

*** ChampSim Multicore Out-of-Order Simulator ***

Warmup Instructions: 10000000
Simulation Instructions: 50000000
Number of CPUs: 1
Page size: 4096

CPU 0 Bimodal branch predictor
Basic BTB sets: 1024 ways: 8 indirect buffer size: 4096 RAS size: 64
Off-chip DRAM Size: 4 GiB Channels: 1 Width: 64-bit Data Rate: 3200 MT/s
Heartbeat CPU 0 instructions: 10000000 cycles: 2500046 heartbeat IPC: 3.99993 cumulative IPC: 3.99993 (Simulation time: 0 hr 2 min 4 sec) 
Warmup finished CPU 0 instructions: 10000000 cycles: 2500047 cumulative IPC: 3.99993 (Simulation time: 0 hr 2 min 4 sec) 

Warmup complete CPU 0 instructions: 10000000 cycles: 2500047 (Simulation time: 0 hr 2 min 4 sec) 

Heartbeat CPU 0 instructions: 20000000 cycles: 10521502 heartbeat IPC: 1.24666 cumulative IPC: 1.24666 (Simulation time: 0 hr 5 min 22 sec) 
Heartbeat CPU 0 instructions: 30000000 cycles: 18190773 heartbeat IPC: 1.30391 cumulative IPC: 1.27464 (Simulation time: 0 hr 8 min 41 sec) 
Heartbeat CPU 0 instructions: 40000001 cycles: 26056463 heartbeat IPC: 1.27135 cumulative IPC: 1.27354 (Simulation time: 0 hr 12 min 17 sec) 
Heartbeat CPU 0 instructions: 50000001 cycles: 33819664 heartbeat IPC: 1.28813 cumulative IPC: 1.27716 (Simulation time: 0 hr 15 min 21 sec) 
Heartbeat CPU 0 instructions: 60000004 cycles: 41674851 heartbeat IPC: 1.27305 cumulative IPC: 1.27634 (Simulation time: 0 hr 17 min 45 sec) 
Simulation finished CPU 0 instructions: 50000004 cycles: 39174805 cumulative IPC: 1.27634 (Simulation time: 0 hr 17 min 45 sec) 

Simulation complete CPU 0 instructions: 50000004 cycles: 39174805 (Simulation time: 0 hr 17 min 45 sec) 


ChampSim completed all CPUs

=== Simulation ===
CPU 0 runs /home/kostr2010/cod/microarch-course/traces/648.exchange2_s-387B.champsimtrace.xz

Region of Interest Statistics

CPU 0 cumulative IPC: 1.27634 instructions: 50000004 cycles: 39174805
CPU 0 Branch Prediction Accuracy: 85.412% MPKI: 24.5623 Average ROB Occupancy at Mispredict: 15.6783
Branch type MPKI
BRANCH_DIRECT_JUMP: 0.53074
BRANCH_INDIRECT: 0
BRANCH_CONDITIONAL: 24.0282
BRANCH_DIRECT_CALL: 0.00166
BRANCH_INDIRECT_CALL: 0
BRANCH_RETURN: 0.00166

LLC TOTAL       ACCESS:       1127  HIT:          0  MISS:       1127
LLC LOAD         ACCESS:       1032  HIT:          0  MISS:       1032
LLC RFO          ACCESS:         69  HIT:          0  MISS:         69
LLC PREFETCH     ACCESS:          0  HIT:          0  MISS:          0
LLC WRITE        ACCESS:          0  HIT:          0  MISS:          0
LLC TRANSLATION  ACCESS:         26  HIT:          0  MISS:         26
LLC PREFETCH  REQUESTED:          0  ISSUED:          0  USEFUL:          0  USELESS:          0
LLC AVERAGE MISS LATENCY: 105.976 cycles
cpu0_DTLB TOTAL       ACCESS:   11941676  HIT:   11941623  MISS:         53
cpu0_DTLB LOAD         ACCESS:   11941676  HIT:   11941623  MISS:         53
cpu0_DTLB RFO          ACCESS:          0  HIT:          0  MISS:          0
cpu0_DTLB PREFETCH     ACCESS:          0  HIT:          0  MISS:          0
cpu0_DTLB WRITE        ACCESS:          0  HIT:          0  MISS:          0
cpu0_DTLB TRANSLATION  ACCESS:          0  HIT:          0  MISS:          0
cpu0_DTLB PREFETCH  REQUESTED:          0  ISSUED:          0  USEFUL:          0  USELESS:          0
cpu0_DTLB AVERAGE MISS LATENCY: 95.2831 cycles
cpu0_ITLB TOTAL       ACCESS:     464822  HIT:     464762  MISS:         60
cpu0_ITLB LOAD         ACCESS:     464822  HIT:     464762  MISS:         60
cpu0_ITLB RFO          ACCESS:          0  HIT:          0  MISS:          0
cpu0_ITLB PREFETCH     ACCESS:          0  HIT:          0  MISS:          0
cpu0_ITLB WRITE        ACCESS:          0  HIT:          0  MISS:          0
cpu0_ITLB TRANSLATION  ACCESS:          0  HIT:          0  MISS:          0
cpu0_ITLB PREFETCH  REQUESTED:          0  ISSUED:          0  USEFUL:          0  USELESS:          0
cpu0_ITLB AVERAGE MISS LATENCY: 132.134 cycles
cpu0_L1D TOTAL       ACCESS:   14294689  HIT:   14293849  MISS:        840
cpu0_L1D LOAD         ACCESS:    8431489  HIT:    8431379  MISS:        110
cpu0_L1D RFO          ACCESS:          0  HIT:          0  MISS:          0
cpu0_L1D PREFETCH     ACCESS:          0  HIT:          0  MISS:          0
cpu0_L1D WRITE        ACCESS:    5863162  HIT:    5862458  MISS:        704
cpu0_L1D TRANSLATION  ACCESS:         38  HIT:         12  MISS:         26
cpu0_L1D PREFETCH  REQUESTED:          0  ISSUED:          0  USEFUL:          0  USELESS:          0
cpu0_L1D AVERAGE MISS LATENCY: 29.6108 cycles
cpu0_L1I TOTAL       ACCESS:     572088  HIT:     528013  MISS:      44075
cpu0_L1I LOAD         ACCESS:     572088  HIT:     528013  MISS:      44075
cpu0_L1I RFO          ACCESS:          0  HIT:          0  MISS:          0
cpu0_L1I PREFETCH     ACCESS:          0  HIT:          0  MISS:          0
cpu0_L1I WRITE        ACCESS:          0  HIT:          0  MISS:          0
cpu0_L1I TRANSLATION  ACCESS:          0  HIT:          0  MISS:          0
cpu0_L1I PREFETCH  REQUESTED:          0  ISSUED:          0  USEFUL:          0  USELESS:          0
cpu0_L1I AVERAGE MISS LATENCY: 7.96364 cycles
cpu0_L2C TOTAL       ACCESS:      23093  HIT:      21966  MISS:       1127
cpu0_L2C LOAD         ACCESS:      22998  HIT:      21966  MISS:       1032
cpu0_L2C RFO          ACCESS:         69  HIT:          0  MISS:         69
cpu0_L2C PREFETCH     ACCESS:          0  HIT:          0  MISS:          0
cpu0_L2C WRITE        ACCESS:          0  HIT:          0  MISS:          0
cpu0_L2C TRANSLATION  ACCESS:         26  HIT:          0  MISS:         26
cpu0_L2C PREFETCH  REQUESTED:          0  ISSUED:          0  USEFUL:          0  USELESS:          0
cpu0_L2C AVERAGE MISS LATENCY: 126.976 cycles
cpu0_STLB TOTAL       ACCESS:         37  HIT:          0  MISS:         37
cpu0_STLB LOAD         ACCESS:         37  HIT:          0  MISS:         37
cpu0_STLB RFO          ACCESS:          0  HIT:          0  MISS:          0
cpu0_STLB PREFETCH     ACCESS:          0  HIT:          0  MISS:          0
cpu0_STLB WRITE        ACCESS:          0  HIT:          0  MISS:          0
cpu0_STLB TRANSLATION  ACCESS:          0  HIT:          0  MISS:          0
cpu0_STLB PREFETCH  REQUESTED:          0  ISSUED:          0  USEFUL:          0  USELESS:          0
cpu0_STLB AVERAGE MISS LATENCY: 341.757 cycles

DRAM Statistics
Channel 0
 RQ ROW_BUFFER_HIT:        790
  ROW_BUFFER_MISS:        337
 AVG DBUS CONGESTED CYCLE:     3.8775
 WQ ROW_BUFFER_HIT:          0
  ROW_BUFFER_MISS:          0  FULL:          0

