WARNING: physical memory size is smaller than virtual memory size

*** ChampSim Multicore Out-of-Order Simulator ***

Warmup Instructions: 10000000
Simulation Instructions: 50000000
Number of CPUs: 1
Page size: 4096

CPU 0 Bimodal branch predictor
Basic BTB sets: 1024 ways: 8 indirect buffer size: 4096 RAS size: 64
Off-chip DRAM Size: 4 GiB Channels: 1 Width: 64-bit Data Rate: 3200 MT/s
Heartbeat CPU 0 instructions: 10000003 cycles: 2500044 heartbeat IPC: 3.99994 cumulative IPC: 3.99994 (Simulation time: 0 hr 1 min 52 sec) 
Warmup finished CPU 0 instructions: 10000003 cycles: 2500045 cumulative IPC: 3.99993 (Simulation time: 0 hr 1 min 52 sec) 

Warmup complete CPU 0 instructions: 10000003 cycles: 2500045 (Simulation time: 0 hr 1 min 52 sec) 

Heartbeat CPU 0 instructions: 20000000 cycles: 26016153 heartbeat IPC: 0.425241 cumulative IPC: 0.425241 (Simulation time: 0 hr 9 min 36 sec) 
Heartbeat CPU 0 instructions: 30000001 cycles: 49460676 heartbeat IPC: 0.426539 cumulative IPC: 0.425889 (Simulation time: 0 hr 16 min 21 sec) 
Heartbeat CPU 0 instructions: 40000000 cycles: 72974433 heartbeat IPC: 0.425283 cumulative IPC: 0.425687 (Simulation time: 0 hr 20 min 23 sec) 
Heartbeat CPU 0 instructions: 50000000 cycles: 96490029 heartbeat IPC: 0.42525 cumulative IPC: 0.425578 (Simulation time: 0 hr 22 min 35 sec) 
Heartbeat CPU 0 instructions: 60000000 cycles: 120001573 heartbeat IPC: 0.425323 cumulative IPC: 0.425527 (Simulation time: 0 hr 24 min 36 sec) 
Simulation finished CPU 0 instructions: 50000002 cycles: 117501530 cumulative IPC: 0.425527 (Simulation time: 0 hr 24 min 36 sec) 

Simulation complete CPU 0 instructions: 50000002 cycles: 117501530 (Simulation time: 0 hr 24 min 36 sec) 


ChampSim completed all CPUs

=== Simulation ===
CPU 0 runs /home/kostr2010/cod/microarch-course/traces/602.gcc_s-1850B.champsimtrace.xz

Region of Interest Statistics

CPU 0 cumulative IPC: 0.425527 instructions: 50000002 cycles: 117501530
CPU 0 Branch Prediction Accuracy: 87.8417% MPKI: 31.1734 Average ROB Occupancy at Mispredict: 12.9106
Branch type MPKI
BRANCH_DIRECT_JUMP: 0.01114
BRANCH_INDIRECT: 0
BRANCH_CONDITIONAL: 31.1623
BRANCH_DIRECT_CALL: 0
BRANCH_INDIRECT_CALL: 0
BRANCH_RETURN: 0

LLC TOTAL       ACCESS:     891279  HIT:       1403  MISS:     889876
LLC LOAD         ACCESS:     888218  HIT:        164  MISS:     888054
LLC RFO          ACCESS:        303  HIT:          0  MISS:        303
LLC PREFETCH     ACCESS:          0  HIT:          0  MISS:          0
LLC WRITE        ACCESS:       1025  HIT:       1025  MISS:          0
LLC TRANSLATION  ACCESS:       1733  HIT:        214  MISS:       1519
LLC PREFETCH  REQUESTED:          0  ISSUED:          0  USEFUL:          0  USELESS:          0
LLC AVERAGE MISS LATENCY: 78.853 cycles
cpu0_DTLB TOTAL       ACCESS:   13604695  HIT:   13489718  MISS:     114977
cpu0_DTLB LOAD         ACCESS:   13604695  HIT:   13489718  MISS:     114977
cpu0_DTLB RFO          ACCESS:          0  HIT:          0  MISS:          0
cpu0_DTLB PREFETCH     ACCESS:          0  HIT:          0  MISS:          0
cpu0_DTLB WRITE        ACCESS:          0  HIT:          0  MISS:          0
cpu0_DTLB TRANSLATION  ACCESS:          0  HIT:          0  MISS:          0
cpu0_DTLB PREFETCH  REQUESTED:          0  ISSUED:          0  USEFUL:          0  USELESS:          0
cpu0_DTLB AVERAGE MISS LATENCY: 32.0194 cycles
cpu0_ITLB TOTAL       ACCESS:          0  HIT:          0  MISS:          0
cpu0_ITLB LOAD         ACCESS:          0  HIT:          0  MISS:          0
cpu0_ITLB RFO          ACCESS:          0  HIT:          0  MISS:          0
cpu0_ITLB PREFETCH     ACCESS:          0  HIT:          0  MISS:          0
cpu0_ITLB WRITE        ACCESS:          0  HIT:          0  MISS:          0
cpu0_ITLB TRANSLATION  ACCESS:          0  HIT:          0  MISS:          0
cpu0_ITLB PREFETCH  REQUESTED:          0  ISSUED:          0  USEFUL:          0  USELESS:          0
cpu0_ITLB AVERAGE MISS LATENCY: -nan cycles
cpu0_L1D TOTAL       ACCESS:   16689494  HIT:   13494463  MISS:    3195031
cpu0_L1D LOAD         ACCESS:   11821680  HIT:    8629385  MISS:    3192295
cpu0_L1D RFO          ACCESS:          0  HIT:          0  MISS:          0
cpu0_L1D PREFETCH     ACCESS:          0  HIT:          0  MISS:          0
cpu0_L1D WRITE        ACCESS:    4852406  HIT:    4852010  MISS:        396
cpu0_L1D TRANSLATION  ACCESS:      15408  HIT:      13068  MISS:       2340
cpu0_L1D PREFETCH  REQUESTED:          0  ISSUED:          0  USEFUL:          0  USELESS:          0
cpu0_L1D AVERAGE MISS LATENCY: 31.8649 cycles
cpu0_L1I TOTAL       ACCESS:          0  HIT:          0  MISS:          0
cpu0_L1I LOAD         ACCESS:          0  HIT:          0  MISS:          0
cpu0_L1I RFO          ACCESS:          0  HIT:          0  MISS:          0
cpu0_L1I PREFETCH     ACCESS:          0  HIT:          0  MISS:          0
cpu0_L1I WRITE        ACCESS:          0  HIT:          0  MISS:          0
cpu0_L1I TRANSLATION  ACCESS:          0  HIT:          0  MISS:          0
cpu0_L1I PREFETCH  REQUESTED:          0  ISSUED:          0  USEFUL:          0  USELESS:          0
cpu0_L1I AVERAGE MISS LATENCY: -nan cycles
cpu0_L2C TOTAL       ACCESS:    1206647  HIT:     316393  MISS:     890254
cpu0_L2C LOAD         ACCESS:    1201417  HIT:     313199  MISS:     888218
cpu0_L2C RFO          ACCESS:        303  HIT:          0  MISS:        303
cpu0_L2C PREFETCH     ACCESS:          0  HIT:          0  MISS:          0
cpu0_L2C WRITE        ACCESS:       2622  HIT:       2622  MISS:          0
cpu0_L2C TRANSLATION  ACCESS:       2305  HIT:        572  MISS:       1733
cpu0_L2C PREFETCH  REQUESTED:          0  ISSUED:          0  USEFUL:          0  USELESS:          0
cpu0_L2C AVERAGE MISS LATENCY: 99.8191 cycles
cpu0_STLB TOTAL       ACCESS:      16247  HIT:       1029  MISS:      15218
cpu0_STLB LOAD         ACCESS:      16247  HIT:       1029  MISS:      15218
cpu0_STLB RFO          ACCESS:          0  HIT:          0  MISS:          0
cpu0_STLB PREFETCH     ACCESS:          0  HIT:          0  MISS:          0
cpu0_STLB WRITE        ACCESS:          0  HIT:          0  MISS:          0
cpu0_STLB TRANSLATION  ACCESS:          0  HIT:          0  MISS:          0
cpu0_STLB PREFETCH  REQUESTED:          0  ISSUED:          0  USEFUL:          0  USELESS:          0
cpu0_STLB AVERAGE MISS LATENCY: 232.374 cycles

DRAM Statistics
Channel 0
 RQ ROW_BUFFER_HIT:     838607
  ROW_BUFFER_MISS:      51269
 AVG DBUS CONGESTED CYCLE:    3.86427
 WQ ROW_BUFFER_HIT:        693
  ROW_BUFFER_MISS:        326  FULL:          0

