WARNING: physical memory size is smaller than virtual memory size

*** ChampSim Multicore Out-of-Order Simulator ***

Warmup Instructions: 10000000
Simulation Instructions: 50000000
Number of CPUs: 1
Page size: 4096

CPU 0 Bimodal branch predictor
Basic BTB sets: 1024 ways: 8 indirect buffer size: 4096 RAS size: 64
Off-chip DRAM Size: 4 GiB Channels: 1 Width: 64-bit Data Rate: 3200 MT/s
Heartbeat CPU 0 instructions: 10000003 cycles: 2500045 heartbeat IPC: 3.99993 cumulative IPC: 3.99993 (Simulation time: 0 hr 1 min 52 sec) 
Warmup finished CPU 0 instructions: 10000003 cycles: 2500046 cumulative IPC: 3.99993 (Simulation time: 0 hr 1 min 52 sec) 

Warmup complete CPU 0 instructions: 10000003 cycles: 2500046 (Simulation time: 0 hr 1 min 52 sec) 

Heartbeat CPU 0 instructions: 20000003 cycles: 10745351 heartbeat IPC: 1.21282 cumulative IPC: 1.21282 (Simulation time: 0 hr 6 min 49 sec) 
Heartbeat CPU 0 instructions: 30000004 cycles: 19030829 heartbeat IPC: 1.20694 cumulative IPC: 1.20987 (Simulation time: 0 hr 12 min 30 sec) 
Heartbeat CPU 0 instructions: 40000001 cycles: 27294252 heartbeat IPC: 1.21016 cumulative IPC: 1.20997 (Simulation time: 0 hr 17 min 20 sec) 
Heartbeat CPU 0 instructions: 50000003 cycles: 35558078 heartbeat IPC: 1.2101 cumulative IPC: 1.21 (Simulation time: 0 hr 20 min 11 sec) 
Heartbeat CPU 0 instructions: 60000004 cycles: 43823014 heartbeat IPC: 1.20994 cumulative IPC: 1.20999 (Simulation time: 0 hr 21 min 55 sec) 
Simulation finished CPU 0 instructions: 50000001 cycles: 41322969 cumulative IPC: 1.20999 (Simulation time: 0 hr 21 min 55 sec) 

Simulation complete CPU 0 instructions: 50000001 cycles: 41322969 (Simulation time: 0 hr 21 min 55 sec) 


ChampSim completed all CPUs

=== Simulation ===
CPU 0 runs /home/kostr2010/cod/microarch-course/traces/649.fotonik3d_s-1176B.champsimtrace.xz

Region of Interest Statistics

CPU 0 cumulative IPC: 1.20999 instructions: 50000001 cycles: 41322969
CPU 0 Branch Prediction Accuracy: 99.9751% MPKI: 0.00438 Average ROB Occupancy at Mispredict: 352
Branch type MPKI
BRANCH_DIRECT_JUMP: 0
BRANCH_INDIRECT: 0
BRANCH_CONDITIONAL: 0.00438
BRANCH_DIRECT_CALL: 0
BRANCH_INDIRECT_CALL: 0
BRANCH_RETURN: 0

LLC TOTAL       ACCESS:     876771  HIT:     438266  MISS:     438505
LLC LOAD         ACCESS:     438456  HIT:          1  MISS:     438455
LLC RFO          ACCESS:          0  HIT:          0  MISS:          0
LLC PREFETCH     ACCESS:          0  HIT:          0  MISS:          0
LLC WRITE        ACCESS:     438265  HIT:     438265  MISS:          0
LLC TRANSLATION  ACCESS:         50  HIT:          0  MISS:         50
LLC PREFETCH  REQUESTED:          0  ISSUED:          0  USEFUL:          0  USELESS:          0
LLC AVERAGE MISS LATENCY: 285.858 cycles
cpu0_DTLB TOTAL       ACCESS:   13474612  HIT:   13387962  MISS:      86650
cpu0_DTLB LOAD         ACCESS:   13474612  HIT:   13387962  MISS:      86650
cpu0_DTLB RFO          ACCESS:          0  HIT:          0  MISS:          0
cpu0_DTLB PREFETCH     ACCESS:          0  HIT:          0  MISS:          0
cpu0_DTLB WRITE        ACCESS:          0  HIT:          0  MISS:          0
cpu0_DTLB TRANSLATION  ACCESS:          0  HIT:          0  MISS:          0
cpu0_DTLB PREFETCH  REQUESTED:          0  ISSUED:          0  USEFUL:          0  USELESS:          0
cpu0_DTLB AVERAGE MISS LATENCY: 17.771 cycles
cpu0_ITLB TOTAL       ACCESS:          0  HIT:          0  MISS:          0
cpu0_ITLB LOAD         ACCESS:          0  HIT:          0  MISS:          0
cpu0_ITLB RFO          ACCESS:          0  HIT:          0  MISS:          0
cpu0_ITLB PREFETCH     ACCESS:          0  HIT:          0  MISS:          0
cpu0_ITLB WRITE        ACCESS:          0  HIT:          0  MISS:          0
cpu0_ITLB TRANSLATION  ACCESS:          0  HIT:          0  MISS:          0
cpu0_ITLB PREFETCH  REQUESTED:          0  ISSUED:          0  USEFUL:          0  USELESS:          0
cpu0_ITLB AVERAGE MISS LATENCY: -nan cycles
cpu0_L1D TOTAL       ACCESS:   16805334  HIT:   13826755  MISS:    2978579
cpu0_L1D LOAD         ACCESS:   13288180  HIT:   10312500  MISS:    2975680
cpu0_L1D RFO          ACCESS:          0  HIT:          0  MISS:          0
cpu0_L1D PREFETCH     ACCESS:          0  HIT:          0  MISS:          0
cpu0_L1D WRITE        ACCESS:    3510266  HIT:    3507639  MISS:       2627
cpu0_L1D TRANSLATION  ACCESS:       6888  HIT:       6616  MISS:        272
cpu0_L1D PREFETCH  REQUESTED:          0  ISSUED:          0  USEFUL:          0  USELESS:          0
cpu0_L1D AVERAGE MISS LATENCY: 47.5547 cycles
cpu0_L1I TOTAL       ACCESS:          0  HIT:          0  MISS:          0
cpu0_L1I LOAD         ACCESS:          0  HIT:          0  MISS:          0
cpu0_L1I RFO          ACCESS:          0  HIT:          0  MISS:          0
cpu0_L1I PREFETCH     ACCESS:          0  HIT:          0  MISS:          0
cpu0_L1I WRITE        ACCESS:          0  HIT:          0  MISS:          0
cpu0_L1I TRANSLATION  ACCESS:          0  HIT:          0  MISS:          0
cpu0_L1I PREFETCH  REQUESTED:          0  ISSUED:          0  USEFUL:          0  USELESS:          0
cpu0_L1I AVERAGE MISS LATENCY: -nan cycles
cpu0_L2C TOTAL       ACCESS:    1101190  HIT:     662684  MISS:     438506
cpu0_L2C LOAD         ACCESS:     660913  HIT:     222457  MISS:     438456
cpu0_L2C RFO          ACCESS:        763  HIT:        763  MISS:          0
cpu0_L2C PREFETCH     ACCESS:          0  HIT:          0  MISS:          0
cpu0_L2C WRITE        ACCESS:     439245  HIT:     439245  MISS:          0
cpu0_L2C TRANSLATION  ACCESS:        269  HIT:        219  MISS:         50
cpu0_L2C PREFETCH  REQUESTED:          0  ISSUED:          0  USEFUL:          0  USELESS:          0
cpu0_L2C AVERAGE MISS LATENCY: 306.858 cycles
cpu0_STLB TOTAL       ACCESS:      11647  HIT:       4784  MISS:       6863
cpu0_STLB LOAD         ACCESS:      11647  HIT:       4784  MISS:       6863
cpu0_STLB RFO          ACCESS:          0  HIT:          0  MISS:          0
cpu0_STLB PREFETCH     ACCESS:          0  HIT:          0  MISS:          0
cpu0_STLB WRITE        ACCESS:          0  HIT:          0  MISS:          0
cpu0_STLB TRANSLATION  ACCESS:          0  HIT:          0  MISS:          0
cpu0_STLB PREFETCH  REQUESTED:          0  ISSUED:          0  USEFUL:          0  USELESS:          0
cpu0_STLB AVERAGE MISS LATENCY: 209.784 cycles

DRAM Statistics
Channel 0
 RQ ROW_BUFFER_HIT:      18311
  ROW_BUFFER_MISS:     420193
 AVG DBUS CONGESTED CYCLE:    3.97501
 WQ ROW_BUFFER_HIT:     137965
  ROW_BUFFER_MISS:     300250  FULL:          0

