WARNING: physical memory size is smaller than virtual memory size

*** ChampSim Multicore Out-of-Order Simulator ***

Warmup Instructions: 10000000
Simulation Instructions: 50000000
Number of CPUs: 1
Page size: 4096

Basic BTB sets: 1024 ways: 8 indirect buffer size: 4096 RAS size: 64
Off-chip DRAM Size: 4 GiB Channels: 1 Width: 64-bit Data Rate: 3200 MT/s
Heartbeat CPU 0 instructions: 10000001 cycles: 2500048 heartbeat IPC: 3.99993 cumulative IPC: 3.99993 (Simulation time: 0 hr 2 min 38 sec) 
Warmup finished CPU 0 instructions: 10000001 cycles: 2500049 cumulative IPC: 3.99993 (Simulation time: 0 hr 2 min 38 sec) 

Warmup complete CPU 0 instructions: 10000001 cycles: 2500049 (Simulation time: 0 hr 2 min 38 sec) 

Heartbeat CPU 0 instructions: 20000002 cycles: 5096163 heartbeat IPC: 3.85191 cumulative IPC: 3.85192 (Simulation time: 0 hr 6 min 2 sec) 
Heartbeat CPU 0 instructions: 30000003 cycles: 7673590 heartbeat IPC: 3.87984 cumulative IPC: 3.86583 (Simulation time: 0 hr 9 min 35 sec) 
Heartbeat CPU 0 instructions: 40000002 cycles: 10247319 heartbeat IPC: 3.88542 cumulative IPC: 3.87234 (Simulation time: 0 hr 12 min 57 sec) 
Heartbeat CPU 0 instructions: 50000004 cycles: 12816447 heartbeat IPC: 3.89238 cumulative IPC: 3.87733 (Simulation time: 0 hr 16 min 27 sec) 
Heartbeat CPU 0 instructions: 60000002 cycles: 15373876 heartbeat IPC: 3.91018 cumulative IPC: 3.88385 (Simulation time: 0 hr 20 min 3 sec) 
Simulation finished CPU 0 instructions: 50000001 cycles: 12873828 cumulative IPC: 3.88385 (Simulation time: 0 hr 20 min 3 sec) 

Simulation complete CPU 0 instructions: 50000001 cycles: 12873828 (Simulation time: 0 hr 20 min 3 sec) 


ChampSim completed all CPUs

=== Simulation ===
CPU 0 runs /home/kostr2010/cod/microarch-course/traces/625.x264_s-12B.champsimtrace.xz

Region of Interest Statistics

CPU 0 cumulative IPC: 3.88385 instructions: 50000001 cycles: 12873828
CPU 0 Branch Prediction Accuracy: 99.625% MPKI: 0.1614 Average ROB Occupancy at Mispredict: 271.644
Branch type MPKI
BRANCH_DIRECT_JUMP: 4e-05
BRANCH_INDIRECT: 2e-05
BRANCH_CONDITIONAL: 0.15998
BRANCH_DIRECT_CALL: 0
BRANCH_INDIRECT_CALL: 0.00136
BRANCH_RETURN: 0

LLC TOTAL       ACCESS:      12000  HIT:       3183  MISS:       8817
LLC LOAD         ACCESS:      11335  HIT:       3025  MISS:       8310
LLC RFO          ACCESS:        471  HIT:          4  MISS:        467
LLC PREFETCH     ACCESS:          0  HIT:          0  MISS:          0
LLC WRITE        ACCESS:        147  HIT:        147  MISS:          0
LLC TRANSLATION  ACCESS:         47  HIT:          7  MISS:         40
LLC PREFETCH  REQUESTED:          0  ISSUED:          0  USEFUL:          0  USELESS:          0
LLC AVERAGE MISS LATENCY: 115.9 cycles
cpu0_DTLB TOTAL       ACCESS:    9621091  HIT:    9610885  MISS:      10206
cpu0_DTLB LOAD         ACCESS:    9621091  HIT:    9610885  MISS:      10206
cpu0_DTLB RFO          ACCESS:          0  HIT:          0  MISS:          0
cpu0_DTLB PREFETCH     ACCESS:          0  HIT:          0  MISS:          0
cpu0_DTLB WRITE        ACCESS:          0  HIT:          0  MISS:          0
cpu0_DTLB TRANSLATION  ACCESS:          0  HIT:          0  MISS:          0
cpu0_DTLB PREFETCH  REQUESTED:          0  ISSUED:          0  USEFUL:          0  USELESS:          0
cpu0_DTLB AVERAGE MISS LATENCY: 6.78327 cycles
cpu0_ITLB TOTAL       ACCESS:     857425  HIT:     857425  MISS:          0
cpu0_ITLB LOAD         ACCESS:     857425  HIT:     857425  MISS:          0
cpu0_ITLB RFO          ACCESS:          0  HIT:          0  MISS:          0
cpu0_ITLB PREFETCH     ACCESS:          0  HIT:          0  MISS:          0
cpu0_ITLB WRITE        ACCESS:          0  HIT:          0  MISS:          0
cpu0_ITLB TRANSLATION  ACCESS:          0  HIT:          0  MISS:          0
cpu0_ITLB PREFETCH  REQUESTED:          0  ISSUED:          0  USEFUL:          0  USELESS:          0
cpu0_ITLB AVERAGE MISS LATENCY: -nan cycles
cpu0_L1D TOTAL       ACCESS:   10743966  HIT:   10696186  MISS:      47780
cpu0_L1D LOAD         ACCESS:    7720971  HIT:    7673849  MISS:      47122
cpu0_L1D RFO          ACCESS:          0  HIT:          0  MISS:          0
cpu0_L1D PREFETCH     ACCESS:          0  HIT:          0  MISS:          0
cpu0_L1D WRITE        ACCESS:    3022839  HIT:    3022329  MISS:        510
cpu0_L1D TRANSLATION  ACCESS:        156  HIT:          8  MISS:        148
cpu0_L1D PREFETCH  REQUESTED:          0  ISSUED:          0  USEFUL:          0  USELESS:          0
cpu0_L1D AVERAGE MISS LATENCY: 30.3013 cycles
cpu0_L1I TOTAL       ACCESS:    1008632  HIT:    1008629  MISS:          3
cpu0_L1I LOAD         ACCESS:    1008632  HIT:    1008629  MISS:          3
cpu0_L1I RFO          ACCESS:          0  HIT:          0  MISS:          0
cpu0_L1I PREFETCH     ACCESS:          0  HIT:          0  MISS:          0
cpu0_L1I WRITE        ACCESS:          0  HIT:          0  MISS:          0
cpu0_L1I TRANSLATION  ACCESS:          0  HIT:          0  MISS:          0
cpu0_L1I PREFETCH  REQUESTED:          0  ISSUED:          0  USEFUL:          0  USELESS:          0
cpu0_L1I AVERAGE MISS LATENCY: 131 cycles
cpu0_L2C TOTAL       ACCESS:      16814  HIT:       4960  MISS:      11854
cpu0_L2C LOAD         ACCESS:      15879  HIT:       4544  MISS:      11335
cpu0_L2C RFO          ACCESS:        475  HIT:          4  MISS:        471
cpu0_L2C PREFETCH     ACCESS:          0  HIT:          0  MISS:          0
cpu0_L2C WRITE        ACCESS:        312  HIT:        311  MISS:          1
cpu0_L2C TRANSLATION  ACCESS:        148  HIT:        101  MISS:         47
cpu0_L2C PREFETCH  REQUESTED:          0  ISSUED:          0  USEFUL:          0  USELESS:          0
cpu0_L2C AVERAGE MISS LATENCY: 106.949 cycles
cpu0_STLB TOTAL       ACCESS:       3430  HIT:       3274  MISS:        156
cpu0_STLB LOAD         ACCESS:       3430  HIT:       3274  MISS:        156
cpu0_STLB RFO          ACCESS:          0  HIT:          0  MISS:          0
cpu0_STLB PREFETCH     ACCESS:          0  HIT:          0  MISS:          0
cpu0_STLB WRITE        ACCESS:          0  HIT:          0  MISS:          0
cpu0_STLB TRANSLATION  ACCESS:          0  HIT:          0  MISS:          0
cpu0_STLB PREFETCH  REQUESTED:          0  ISSUED:          0  USEFUL:          0  USELESS:          0
cpu0_STLB AVERAGE MISS LATENCY: 266.808 cycles

DRAM Statistics
Channel 0
 RQ ROW_BUFFER_HIT:       6115
  ROW_BUFFER_MISS:       2702
 AVG DBUS CONGESTED CYCLE:     3.6303
 WQ ROW_BUFFER_HIT:          0
  ROW_BUFFER_MISS:          0  FULL:          0

